[TITLE]
foss_iron -- Bragalli, D'Ambrosio, Lee, Lodi, Toth (2008)

[JUNCTIONS]
;ID              	Elev        	Demand      	Pattern         
 1               	65.15       	0.49        	                	;
 2               	64.40       	1.04        	                	;
 3               	63.35       	1.02        	                	;
 4               	62.50       	0.81        	                	;
 5               	61.24       	0.63        	                	;
 6               	65.40       	0.79        	                	;
 7               	67.90       	0.26        	                	;
 8               	66.50       	0.58        	                	;
 9               	66.00       	0.54        	                	;
 10              	64.17       	1.11        	                	;
 11              	63.70       	1.75        	                	;
 12              	62.64       	0.91        	                	;
 13              	61.90       	1.16        	                	;
 14              	62.60       	0.54        	                	;
 15              	63.50       	1.10        	                	;
 16              	64.30       	1.21        	                	;
 17              	65.50       	1.27        	                	;
 18              	64.10       	2.02        	                	;
 19              	62.90       	1.88        	                	;
 20              	62.83       	0.93        	                	;
 21              	62.80       	0.96        	                	;
 22              	63.90       	0.97        	                	;
 23              	64.20       	0.86        	                	;
 24              	67.50       	0.67        	                	;
 25              	64.40       	0.77        	                	;
 26              	63.40       	1.69        	                	;
 27              	63.90       	1.42        	                	;
 28              	65.65       	0.30        	                	;
 29              	64.50       	0.62        	                	;
 30              	64.10       	0.54        	                	;
 31              	64.40       	0.90        	                	;
 32              	64.20       	1.03        	                	;
 33              	64.60       	0.77        	                	;
 34              	64.70       	0.74        	                	;
 35              	65.43       	1.16        	                	;
 36              	65.90       	0.47        	                	;
 38              	0           	0           	                	;

[RESERVOIRS]
;ID              	Head        	Pattern         
 37              	121.00      	                	;

[TANKS]
;ID              	Elevation   	InitLevel   	MinLevel    	MaxLevel    	Diameter    	MinVol      	VolCurve        	Overflow

[PIPES]
;ID              	Node1           	Node2           	Length      	Diameter    	Roughness   	MinorLoss   	Status
 1               	1               	17              	132.76      	60.00       	130.00      	0.00        	Open  	; 
 2               	17              	2               	374.68      	60.00       	130.00      	0.00        	Open  	; 
 3               	2               	3               	119.74      	60.00       	130.00      	0.00        	Open  	; 
 4               	3               	4               	312.72      	60.00       	130.00      	0.00        	Open  	; 
 5               	4               	5               	289.09      	60.00       	130.00      	0.00        	Open  	; 
 6               	5               	6               	336.33      	60.00       	130.00      	0.00        	Open  	; 
 7               	6               	7               	135.81      	60.00       	130.00      	0.00        	Open  	; 
 8               	7               	24              	201.26      	60.00       	130.00      	0.00        	Open  	; 
 9               	24              	8               	132.53      	60.00       	130.00      	0.00        	Open  	; 
 10              	8               	28              	144.66      	60.00       	130.00      	0.00        	Open  	; 
 11              	28              	9               	175.72      	60.00       	130.00      	0.00        	Open  	; 
 12              	9               	36              	112.17      	60.00       	130.00      	0.00        	Open  	; 
 13              	36              	1               	210.74      	60.00       	130.00      	0.00        	Open  	; 
 14              	1               	31              	75.41       	200.00      	130.00      	0.00        	Open  	; 
 15              	31              	10              	181.42      	150.00      	130.00      	0.00        	Open  	; 
 16              	10              	11              	146.96      	125.00      	130.00      	0.00        	Closed	; 
 17              	11              	19              	162.69      	80.00       	130.00      	0.00        	Open  	; 
 18              	19              	12              	99.64       	60.00       	130.00      	0.00        	Open  	; 
 19              	12              	4               	52.98       	60.00       	130.00      	0.00        	Open  	; 
 20              	2               	18              	162.97      	60.00       	130.00      	0.00        	Open  	; 
 21              	18              	10              	83.96       	60.00       	130.00      	0.00        	Open  	; 
 22              	10              	32              	49.82       	60.00       	130.00      	0.00        	Open  	; 
 23              	32              	27              	78.50       	100.00      	130.00      	0.00        	Open  	; 
 24              	27              	16              	99.27       	60.00       	130.00      	0.00        	Open  	; 
 25              	16              	25              	82.29       	60.00       	130.00      	0.00        	Open  	; 
 26              	25              	8               	147.49      	60.00       	130.00      	0.00        	Open  	; 
 27              	3               	11              	197.32      	60.00       	130.00      	0.00        	Open  	; 
 28              	11              	26              	83.30       	60.00       	130.00      	0.00        	Open  	; 
 29              	26              	15              	113.80      	60.00       	130.00      	0.00        	Open  	; 
 30              	15              	22              	80.82       	60.00       	130.00      	0.00        	Open  	; 
 31              	22              	7               	340.97      	60.00       	130.00      	0.00        	Open  	; 
 32              	5               	13              	77.39       	60.00       	130.00      	0.00        	Open  	; 
 33              	13              	14              	112.37      	60.00       	130.00      	0.00        	Open  	; 
 34              	14              	20              	37.34       	60.00       	130.00      	0.00        	Open  	; 
 35              	20              	15              	108.85      	60.00       	130.00      	0.00        	Open  	; 
 36              	15              	16              	182.82      	60.00       	130.00      	0.00        	Open  	; 
 37              	16              	29              	136.02      	60.00       	130.00      	0.00        	Open  	; 
 38              	29              	30              	56.70       	60.00       	130.00      	0.00        	Open  	; 
 39              	30              	9               	124.08      	60.00       	130.00      	0.00        	Open  	; 
 40              	17              	18              	234.60      	60.00       	130.00      	0.00        	Open  	; 
 41              	12              	13              	203.83      	60.00       	130.00      	0.00        	Open  	; 
 42              	19              	20              	248.05      	60.00       	130.00      	0.00        	Open  	; 
 43              	14              	21              	65.19       	60.00       	130.00      	0.00        	Open  	; 
 44              	21              	6               	210.09      	60.00       	130.00      	0.00        	Open  	; 
 45              	21              	22              	147.57      	60.00       	130.00      	0.00        	Open  	; 
 46              	22              	23              	103.80      	60.00       	130.00      	0.00        	Open  	; 
 47              	24              	23              	210.95      	60.00       	130.00      	0.00        	Open  	; 
 48              	23              	25              	75.08       	60.00       	130.00      	0.00        	Open  	; 
 49              	26              	27              	180.29      	60.00       	130.00      	0.00        	Open  	; 
 50              	28              	29              	149.05      	60.00       	130.00      	0.00        	Open  	; 
 51              	29              	33              	215.05      	60.00       	130.00      	0.00        	Open  	; 
 52              	32              	33              	144.44      	80.00       	130.00      	0.00        	Open  	; 
 53              	33              	34              	34.74       	100.00      	130.00      	0.00        	Open  	; 
 54              	31              	34              	59.93       	125.00      	130.00      	0.00        	Open  	; 
 55              	34              	35              	165.67      	60.00       	130.00      	0.00        	Open  	; 
 56              	30              	35              	119.97      	60.00       	130.00      	0.00        	Open  	; 
 57              	35              	36              	83.17       	60.00       	130.00      	0.00        	Open  	; 
 60              	37              	38              	10          	250         	130         	0           	Open  	;

[PUMPS]
;ID              	Node1           	Node2           	Parameters

[VALVES]
;ID              	Node1           	Node2           	Diameter    	Type	Setting     	MinorLoss   
 59              	38              	1               	250         	PRV 	50          	0           	;

[TAGS]

[DEMANDS]
;Junction        	Demand      	Pattern         	Category

[STATUS]
;ID              	Status/Setting

[PATTERNS]
;ID              	Multipliers
;
 1               	1.066232868 	0.891872231 	0.797169114 	0.751487914 	0.786850013 	0.902463538 
 1               	0.695363882 	0.701773108 	0.948565421 	1.192734654 	1.217505445 	1.0203537   
 1               	1.158857317 	1.187785444 	1.03267723  	1.068484758 	0.933321857 	1.116393103 
 1               	1.163608558 	1.214610158 	1.150988075 	1.028420911 	0.966877495 	0.942601624 
 1               	0.892342406 	0.808972978 	0.804221737 	0.792417873 	0.774378006 	0.702292775 
 1               	0.750473326 	0.925378376 	1.213199633 	1.389589447 	1.461897392 	1.430098723 
 1               	1.323665981 	1.311490927 	1.260712041 	1.192116002 	1.226042831 	1.090706707 
 1               	1.151878932 	1.101322761 	1.144455118 	0.982912933 	1.055220878 	1.01490957  
 1               	0.939112432 	0.851437192 	0.683213574 	0.696576439 	0.65745294  	0.850991763 
 1               	0.892416644 	1.066430837 	1.217802398 	1.527152714 	1.409039838 	1.437695759 
 1               	1.446307383 	1.475260257 	1.317949644 	1.208671107 	1.155442363 	1.151359265 
 1               	1.164944844 	1.086920562 	1.250244464 	1.155590839 	1.040447489 	0.979572216 
 1               	0.805261071 	0.707786397 	0.725083883 	0.76665724  	0.847502571 	0.886923022 
 1               	1.020254715 	1.134136017 	1.257519801 	1.272812857 	1.177268375 	1.101842428 
 1               	1.258633373 	1.299167396 	1.151285027 	1.071924459 	1.033766056 	1.039779345 
 1               	1.151878932 	1.286992341 	1.303027779 	1.144677833 	1.115131054 	0.870887584 
 1               	0.807636691 	0.781504867 	0.829759656 	0.869774012 	0.909788368 	0.873708633 
 1               	0.992489652 	1.057299546 	1.128271205 	1.314683166 	1.380012727 	1.410450363 
 1               	1.270882666 	1.318692026 	1.173333754 	1.044233634 	1.033988771 	1.211195204 
 1               	1.227973023 	1.254847228 	1.337177322 	1.101396999 	0.864874295 	0.871555727 
 1               	0.912683655 	0.862721389 	0.874005586 	0.876306968 	0.819366317 	0.723079453 
 1               	0.755669996 	0.947204389 	1.197312672 	1.467465252 	1.473181589 	1.522772664 
 1               	1.400353976 	1.217653921 	1.206369725 	1.18981462  	1.170215752 	1.20696363  
 1               	1.112483228 	1.210601298 	1.226191307 	1.096348806 	0.963017112 	0.94438334  
 1               	0.931837094 	0.879499208 	0.870739108 	0.850991763 	0.833248849 	0.863166818 
 1               	1.056408688 	1.19063124  	1.229606262 	1.307259353 	1.226339783 	1.129607491 
 1               	1.251358036 	1.26672533  	1.184692189 	1.069326124 	1.072518364 	1.084396466 
 1               	1.173036801 	1.233689359 	1.311268212 	1.178159233 	1.060788738 	0.891600024 
 1               	0.8319868   	0.760421236 	0.800435592 	0.872743537 	0.869328583 	0.908377843 
 1               	1.010826472 	1.191150907 	1.315202833 	1.346160136 	1.215946444 	1.293599536 
 1               	1.218990208 	1.243785746 	1.165464511 	1.087440229 	1.02604529  	1.180831806 
 1               	1.266651092 	1.265685996 	1.315499786 	1.127825776 	0.94913458  	0.858489815 
 1               	0.889001689 	0.873634395 	0.851734145 	0.822632795 	0.864503104 	0.893827168 
 1               	0.845349665 	0.991450318 	1.306888162 	1.616535431 	1.507850799 	1.430568898 
 1               	1.374667581 	1.335618321 	1.204439533 	1.188775286 	1.240593506 	1.153437933 
 1               	1.294044964 	1.276599002 	1.165612988 	1.085361562 	0.974152832 	1.0097129   
 1               	0.970589402 	0.928941807 	0.862424436 	0.855371813 	0.6949432   	0.649954889 
 1               	0.819069364 	1.015429237 	1.239182981 	1.606290568 	1.565830784 	1.447717908 
 1               	1.346160136 	1.250095987 	1.31535131  	1.187142047 	1.214387443 	1.278158003 
 1               	1.173927659 	1.189072239 	1.282835006 	1.129607491 	1.03881425  	1.033914533 
 1               	0.930575046 	0.84393914  	0.636963215 	0.672894473 	0.746687181 	0.920404421 
 1               	1.083357132 	1.368580054 	1.290110343 	1.186919333 	1.247423414 	1.097016949 
 1               	1.235025646 	1.287289294 	1.272367428 	1.182613521 	1.096719996 	1.097016949 
 1               	1.137773686 	1.326264316 	1.363383384 	1.196644529 	1.122035201 	0.901919125 
 1               	0.770294909 	0.753665566 	0.849952429 	0.845720856 	0.879053779 	0.965392732 
 1               	1.110157099 	1.264943615 	1.29263444  	1.344898088 	1.237995171 	1.373554009 
 1               	1.256554705 	1.200356436 	1.129830206 	1.101693952 	1.036661344 	1.030351102 
 1               	1.041239362 	1.16165362  	1.257297087 	1.116838532 	0.914737577 	0.763291778 
 1               	0.784845583 	0.926863139 	0.774279022 	0.720901801 	1.060095849 	0.69387912  
 1               	1.055592069 	1.181128758 	1.30577459  	1.198129291 	1.332426081 	1.288402866 
 1               	1.236361932 	1.236510408 	1.108672337 	1.105257382 	1.1276773   	1.155442363 
 1               	1.262939185 	1.379641536 	1.294267679 	1.119733819 	0.99575613  	0.893381739 
 1               	0.896648218 	0.889892547 	0.871333013 	0.883656544 	0.751661136 	0.76465281  
 1               	1.018547238 	1.421883036 	1.396122403 	1.409633744 	1.282538053 	1.159599698 
 1               	1.188552572 	1.203251723 	1.217356969 	1.151285027 	1.147870073 	1.097239663 
 1               	1.177639566 	1.249279368 	1.338365132 	1.141708307 	1.04876216  	1.086252419 
 1               	0.925601091 	0.777496008 	0.732878888 	0.806968548 	0.86747263  	0.89776179  
 1               	1.113200863 	1.372440437 	1.310228878 	1.278158003 	1.231684929 	1.162866176 
 1               	1.274817287 	1.187587476 	1.289813391 	1.11409172  	1.056557164 	1.144083928 
 1               	1.192412955 	1.277341384 	1.314905881 	1.212086061 	0.985140077 	0.863315294 
 1               	0.805780738 	0.861310864 	0.872520823 	0.842380139 	0.840672662 	0.751883851 
 1               	0.812387932 	1.021887954 	1.418765034 	1.631605773 	1.510820324 	1.330198937 
 1               	1.324631077 	1.23086831  	1.154996934 	1.114190705 	1.039086456 	1.100407157 
 1               	1.129805459 	1.210205362 	1.101693952 	1.165439765 	0.991648287 	0.75401201  
 1               	0.784746599 	0.818450713 	0.801400688 	0.781158423 	0.8038258   	0.764157889 
 1               	0.778659072 	0.770641353 	1.117432437 	1.228591674 	1.08474291  	1.150047725 
 1               	0.853342638 	1.023595432 	1.080511337 	1.199218117 	1.174076135 	1.021021843 
 1               	1.014340411 	1.13656113  	1.162346509 	1.244924064 	0.939409384 	0.778906532 
 1               	0.80714177  	0.728399853 	0.677274523 	0.774279022 	0.726271693 	0.766187065 
 1               	0.919142373 	1.176773454 	1.226216053 	1.004244024 	1.077393335 	1.087588706 
 1               	0.956236695 	1.073087523 	1.258979818 	1.101941412 	0.762054475 	1.18981462  
 1               	1.221885495 	1.309338021 	1.280756338 	1.103327191 	1.033543342 	0.905482556 
 1               	0.904962889 	0.912386703 	0.865171247 	0.901770649 	0.862795627 	0.766508764 
 1               	1.01490957  	1.283354673 	1.40339774  	1.409930696 	1.322997838 	1.224261116 
 1               	1.157001364 	1.210378584 	1.09857595  	1.120253486 	1.131314968 	1.271179618 
 1               	1.236807361 	1.248314272 	1.297311442 	1.119585343 	1.079942178 	1.002660277 
 1               	0.895014978 	0.816174077 	0.763093809 	0.700733774 	0.752551994 	0.928273664 
 1               	1.109488956 	1.374890295 	1.410450363 	1.230571357 	1.235768027 	1.122703344 
 1               	1.135843495 	1.116690055 	1.157817983 	1.218470541 	1.072072935 	1.184098284 
 1               	1.256554705 	1.219732589 	1.207854487 	1.121886725 	1.057299546 	0.953217678 
 1               	0.870961822 	0.846982904 	0.754407947 	0.700436822 	0.717585831 	0.904443222 
 1               	1.117655151 	1.315648262 	1.41297446  	1.321661551 	1.222999067 	1.033914533 
 1               	1.176229041 	1.28305772  	1.164573654 	1.202732056 	0.738298271 	1.061555866 
 1               	1.189245461 	1.077393335 	1.139159465 	1.178084995 	0.862374944 	0.778906532 
 1               	0.891179341 	0.831095943 	0.758293076 	0.724564216 	0.816025601 	0.913351798 
 1               	1.105851287 	1.271031142 	1.319879836 	1.183801331 	1.271625047 	1.175783612 
 1               	1.235396836 	1.341483134 	1.237920933 	1.095309472 	1.095309472 	1.114537149 
 1               	1.221440066 	1.318469311 	1.268358569 	1.197238434 	1.003996563 	0.910233797 
 1               	0.803553594 	0.775862769 	0.874302538 	0.901919125 	0.891154595 	0.933544572 
 1               	0.889298642 	0.978829835 	1.352693093 	1.488400407 	1.512750516 	1.449870814 
 1               	1.337177322 	1.203325961 	1.157075602 	1.137402495 	1.213199633 	1.194862813 
 1               	1.273035572 	1.24638408  	1.071998697 	1.125821346 	0.946387769 	0.973484689 
 1               	0.948986104 	0.945274197 	0.903700841 	0.849061572 	0.756189662 	0.751438422 
 1               	0.775565816 	1.059675166 	1.280756338 	1.517427518 	1.520322806 	1.505920607 
 1               	1.413642603 	1.323517505 	1.219584113 	1.163163129 	1.29382225  	1.339849895 
 1               	1.188329857 	1.253510942 	1.264943615 	1.187290523 	1.045347206 	0.997686322 
 1               	0.916544038 	0.746538705 	0.728647314 	0.788037823 	0.87504492  	0.923373947 
 1               	1.126786442 	1.448311813 	1.336509179 	1.331015557 	1.305254923 	1.232724263 
 1               	1.231313739 	1.31535131  	1.248536986 	1.072592602 	1.086772086 	1.165984178 
 1               	1.326783983 	1.337177322 	1.363977289 	1.297385681 	1.058561594 	0.880093113 
 1               	0.800287116 	0.849729715 	0.855594528 	0.845349665 	0.898875362 	0.948095246 
 1               	0.996424274 	1.225003497 	1.381645966 	1.359226049 	1.312456022 	1.313718071 
 1               	1.319508645 	1.220178018 	1.130646825 	1.056705641 	1.083505608 	1.254624514 
 1               	1.277638336 	1.423070846 	1.282760768 	1.092859613 	1.000804324 	0.916766753 
 1               	0.908749034 	0.906967319 	0.849581239 	0.912980608 	0.822855509 	0.763539238 
 1               	0.952401058 	1.233021216 	1.393672544 	1.472364969 	1.28105329  	1.190853954 
 1               	1.195530957 	1.196570291 	1.105925525 	1.153809124 	1.224335354 	1.204439533 
 1               	1.181351473 	1.251135321 	1.210477568 	1.187439    	1.118842961 	0.967174448 
 1               	0.894792264 	0.845869332 	0.797094876 	0.737184699 	0.713873924 	0.901622173 
 1               	1.146608024 	1.392039305 	1.422848132 	1.305551876 	1.213125395 	1.112310005 
 1               	1.135917733 	1.239331457 	1.215352539 	1.097907807 	0.982690218 	1.040892918 
 1               	1.130795301 	1.154106076 	1.364719671 	1.154625743 	0.947130151 	0.865319724 
 1               	0.705781968 	0.747874991 	0.804221737 	0.801846117 	0.829462704 	0.866210581 
 1               	1.057744975 	1.206295487 	1.20933925  	1.158411888 	1.174076135 	1.242078269 
 1               	1.223444496 	1.21253149  	1.08261475  	1.103327191 	1.062867406 	1.088331087 
 1               	1.245938652 	1.336212226 	1.235174122 	1.197535386 	0.982096313 	0.827829465 
 1               	0.878088683 	0.850917525 	0.846611713 	0.849803953 	0.681506097 	0.725009645 
 1               	0.836738041 	1.152918266 	1.350540187 	1.476967734 	1.404288598 	1.28825439  
 1               	1.284913674 	1.222405162 	1.266205663 	1.13005292  	1.192932622 	1.138738782 
 1               	1.104539747 	1.164276701 	1.202732056 	1.055666307 	1.00652066  	0.957597728 
 1               	0.862127484 	0.786107632 	0.688336005 	0.680244048 	0.825750797 	0.836960755 
 1               	0.883211115 	0.995310701 	1.192412955 	1.410598839 	1.488548883 	1.411044268 
 1               	1.392410496 	1.309412259 	1.270437237 	1.145717167 	1.075265175 	1.203474437 
 1               	1.1627177   	1.181128758 	1.367689196 	1.18424676  	1.034508438 	0.98142817  
 1               	0.822632795 	0.69531439  	0.637185929 	0.83079899  	0.821964652 	0.903181174 
 1               	1.081723893 	1.274223382 	1.305923066 	1.29939011  	1.200801864 	1.223667211 
 1               	1.208299916 	1.173779183 	1.161901081 	0.974820976 	1.021962193 	1.041561061 
 1               	1.205701581 	1.29263444  	1.249502082 	1.028123958 	0.881132447 	0.827532512 
 1               	0.759753093 	0.762499904 	0.782841154 	0.732656173 	0.776159721 	0.723005215 
 1               	0.937850383 	1.261825613 	1.255812324 	1.280904814 	1.13005292  	1.103104476 
 1               	0.978681359 	1.031464674 	1.02804972  	1.001323991 	1.078531653 	1.104292286 
 1               	1.151730456 	1.129310539 	1.200876103 	1.057893451 	0.986327887 	0.944012149 
 1               	0.840672662 	0.762351428 	0.705856206 	0.61283582  	0.687222433 	0.835030564 
 1               	0.999393799 	1.273258286 	1.262939185 	1.0941959   	1.037700678 	1.226191307 
 1               	1.059452452 	1.14081745  	1.061605358 	1.107484526 	1.023446955 	0.920775612 
 1               	1.058413118 	1.110157099 	1.158411888 	1.103995334 	0.975563357 	0.842157425 
 1               	0.67979862  	0.666658469 	0.693903866 	0.772819005 	0.757377473 	0.793382969 
 1               	1.054181544 	1.196421814 	1.184543712 	1.294564631 	1.107187574 	1.151878932 
 1               	1.099095617 	1.080833035 	1.034953867 	0.966877495 	1.046831968 	1.084025275 
 1               	1.120179248 	1.24400846  	1.240148077 	1.051063542 	0.897464837 	0.770963052 
 1               	0.814392362 	0.751067231 	0.759901569 	0.748691611 	0.742529845 	0.72797917  
 1               	0.883879258 	1.134358732 	1.21453592  	1.199168625 	1.133096684 	1.154551505 
 1               	0.962868636 	1.024783242 	1.031316198 	1.112829672 	1.083282894 	1.088256849 
 1               	1.190853954 	1.1627177   	1.082020845 	1.036141677 	0.91208975  	0.852179574 
 1               	0.847651047 	0.860865436 	0.698209678 	0.784499139 	0.59769124  	0.777941437 
 1               	0.90451746  	1.080758797 	1.347273709 	1.254253323 	1.343042135 	1.125821346 
 1               	1.182093854 	1.26553752  	1.199094387 	1.110305576 	1.072815316 	1.006743375 
 1               	1.046831968 	1.134581446 	1.190779716 	1.02485748  	1.045272968 	0.900954029 
 1               	0.746687181 	0.669999186 	0.696353724 	0.792789064 	0.752923184 	0.759307664 
 1               	0.834882088 	0.814021171 	1.155293886 	1.310303116 	1.48706412  	1.41854232  
 1               	1.34363604  	1.240148077 	1.22010378  	1.036958296 	1.0344342   	1.020106239 
 1               	1.188181381 	1.293451059 	1.141856784 	1.061234167 	0.963462541 	0.788705966 
 1               	0.647579268 	0.728870028 	0.818549697 	0.772373576 	0.751661136 	0.836663803 
 1               	0.95989911  	1.25477299  	1.165984178 	1.185954237 	1.13324516  	1.158931555 
 1               	1.127306109 	1.101545475 	0.98781265  	0.923522423 	1.022333383 	1.155442363 
 1               	1.185211856 	1.255738086 	1.269694855 	1.011865806 	0.795090446 	0.781950296 
 1               	0.795610113 	0.778758056 	0.784400155 	0.764578572 	0.676457903 	0.67779419  
 1               	0.86227596  	1.216614588 	1.300949111 	1.290555772 	1.243711508 	1.033394866 
 1               	1.05395883  	1.04200649  	1.119808057 	1.099541046 	1.054775449 	1.010752234 
 1               	1.017433666 	1.15915427  	1.1714778   	1.073260745 	0.971777212 	0.932208285 
 1               	0.792863302 	0.66821747  	0.596726144 	0.609049675 	0.756932044 	0.857005052 
 1               	0.975637595 	1.341186181 	1.192858384 	1.169844561 	1.037255249 	1.083802561 
 1               	1.133987541 	1.103475667 	1.164202463 	0.990039794 	0.995607654 	1.052771019 
 1               	1.198129291 	1.20377139  	1.286769627 	1.106890621 	0.894049883 	0.74713261  
 1               	0.674379236 	0.656636321 	0.752032327 	0.757971378 	0.75908495  	0.8407469   
 1               	0.943269767 	1.224186878 	1.187216285 	1.19419467  	1.156704411 	1.118991438 
 1               	1.13124073  	1.092265708 	0.990930651 

[CURVES]
;ID              	X-Value     	Y-Value

[CONTROLS]








[RULES]
RULE 1
IF SYSTEM CLOCKTIME >= 0 AM
AND SYSTEM CLOCKTIME < 7 AM
THEN VALVE 59 SETTING IS 40

RULE 2
IF SYSTEM CLOCKTIME >= 7 AM
AND SYSTEM CLOCKTIME < 8 PM
THEN VALVE 59 SETTING IS 60

RULE 3
IF SYSTEM CLOCKTIME >= 8 PM
AND SYSTEM CLOCKTIME <= 11 PM
THEN VALVE 59 SETTING IS 40

[ENERGY]
 Global Efficiency  	75
 Global Price       	0
 Demand Charge      	0

[EMITTERS]
;Junction        	Coefficient

[QUALITY]
;Node            	InitQual
 37              	1.0

[SOURCES]
;Node            	Type        	Quality     	Pattern

[REACTIONS]
;Type     	Pipe/Tank       	Coefficient


[REACTIONS]
 Order Bulk            	1
 Order Tank            	1
 Order Wall            	1
 Global Bulk           	0
 Global Wall           	0
 Limiting Potential    	0
 Roughness Correlation 	0

[MIXING]
;Tank            	Model

[TIMES]
 Duration           	24
 Hydraulic Timestep 	1:00 
 Quality Timestep   	0:05 
 Pattern Timestep   	1:00 
 Pattern Start      	0:00 
 Report Timestep    	1:00 
 Report Start       	0:00 
 Start ClockTime    	0 am
 Statistic          	NONE

[REPORT]
 Status             	No
 Summary            	No
 Page               	0

[OPTIONS]
 Units              	LPS
 Headloss           	H-W
 Specific Gravity   	1
 Viscosity          	1
 Trials             	500
 Accuracy           	0.001
 CHECKFREQ          	2
 MAXCHECK           	10
 DAMPLIMIT          	0
 Unbalanced         	Continue 10
 Pattern            	1
 Demand Multiplier  	1.0
 Demand Model       	PDA
 Minimum Pressure   	0
 Required Pressure  	10
 Pressure Exponent  	0.5
 Emitter Exponent   	0.5
 Quality            	Age mg/L
 Diffusivity        	1
 Tolerance          	0.01

[COORDINATES]
;Node            	X-Coord           	Y-Coord
1               	7111.650          	7532.360          
2               	5679.610          	9538.830          
3               	4862.460          	9538.830          
4               	2750.810          	9474.110          
5               	1852.750          	8357.610          
6               	1974.110          	6076.050          
7               	1974.110          	5149.680          
8               	4235.440          	5076.860          
9               	6411.810          	5093.040          
10              	5412.620          	7888.350          
11              	4510.520          	8264.560          
12              	3033.980          	9243.530          
13              	2301.780          	8078.480          
14              	2944.980          	7669.900          
15              	3786.410          	7139.970          
16              	4830.100          	6480.580          
17              	7099.510          	8438.510          
18              	5505.660          	8450.650          
19              	3563.920          	8839.000          
20              	3167.480          	7532.360          
21              	2730.580          	7285.600          
22              	3511.330          	6666.670          
23              	4097.900          	6286.410          
24              	3337.380          	5121.360          
25              	4530.740          	6011.330          
26              	4215.210          	7783.170          
27              	5194.170          	7055.020          
28              	5218.450          	5089.000          
29              	5622.980          	5999.190          
30              	5950.650          	5796.930          
31              	6614.080          	7621.360          
32              	5380.260          	7544.500          
33              	6318.770          	7281.550          
34              	6549.350          	7212.780          
35              	6585.760          	6092.230          
36              	7152.100          	6104.370          
38              	7543.238          	7725.618          
37              	7669.900          	7783.170          

[VERTICES]
;Link            	X-Coord           	Y-Coord
2               	7103.560          	9555.020          
5               	2030.740          	9579.290          
12              	7168.280          	5097.090          