[TITLE]
pescara -- Bragalli, D'Ambrosio, Lee, Lodi, Toth (2008)

[JUNCTIONS]
;ID              	Elev        	Demand      	Pattern         
 1               	2.9000      	3.336667    	1               	; 
 2               	5.0000      	4.143333    	1               	; 
 3               	3.5000      	2.833333    	1               	; 
 4               	3.8000      	2.833333    	1               	; 
 5               	2.2000      	4.040000    	1               	; 
 6               	7.0000      	0.543333    	1               	; 
 8               	5.2000      	11.200000   	1               	; 
 9               	4.3000      	1.460000    	1               	; 
 10              	5.2000      	5.466667    	1               	; 
 11              	28.0000     	9.923333    	1               	; 
 12              	3.2000      	0.163333    	1               	; 
 13              	3.2000      	2.496667    	1               	; 
 14              	19.2000     	2.020000    	1               	; 
 17              	4.0000      	0.923333    	1               	; 
 18              	3.5000      	1.676667    	1               	; 
 19              	2.8000      	1.603333    	1               	; 
 20              	2.7000      	7.013334    	1               	; 
 21              	1.8000      	5.646667    	1               	; 
 22              	2.1000      	3.470000    	1               	; 
 23              	2.0000      	0.723333    	1               	; 
 24              	18.7000     	2.183333    	1               	; 
 25              	3.2000      	3.470000    	1               	; 
 26              	1.6000      	0.926667    	1               	; 
 27              	3.8000      	1.773333    	1               	; 
 28              	4.3000      	1.210000    	1               	; 
 29              	3.6000      	11.000000   	1               	; 
 30              	3.2000      	2.000000    	1               	; 
 31              	2.8000      	2.133333    	1               	; 
 32              	1.8000      	0.986667    	1               	; 
 33              	3.8000      	1.030000    	1               	; 
 34              	2.9000      	1.030000    	1               	; 
 35              	3.7000      	2.930000    	1               	; 
 36              	2.1000      	0.560000    	1               	; 
 37              	6.7000      	4.213334    	1               	; 
 38              	6.7000      	4.213334    	1               	; 
 39              	4.2000      	4.213334    	1               	; 
 40              	2.9000      	1.853333    	1               	; 
 41              	2.9000      	0.866667    	1               	; 
 42              	28.5000     	1.523333    	1               	; 
 44              	27.3000     	2.520000    	1               	; 
 45              	1.1000      	2.070000    	1               	; 
 46              	2.5000      	1.030000    	1               	; 
 47              	2.8000      	0.196667    	1               	; 
 48              	3.3000      	4.210000    	1               	; 
 49              	1.8000      	1.136667    	1               	; 
 50              	1.8000      	4.403333    	1               	; 
 51              	1.6000      	1.290000    	1               	; 
 52              	1.8000      	2.143333    	1               	; 
 53              	1.6000      	0.850000    	1               	; 
 54              	3.3000      	0.000000    	1               	; 
 55              	2.5000      	3.766667    	1               	; 
 56              	2.8000      	1.330000    	1               	; 
 57              	3.2000      	2.583333    	1               	; 
 58              	3.6000      	0.636667    	1               	; 
 59              	3.8000      	0.293333    	1               	; 
 60              	3.1000      	1.713333    	1               	; 
 61              	3.0000      	1.713333    	1               	; 
 62              	4.2000      	2.480000    	1               	; 
 76              	4.2000      	0.000000    	1               	; 
 82              	2.1000      	0.003333    	1               	; 
 83              	2.1000      	0.000000    	1               	; 
 84              	3.3000      	0.180000    	1               	; 
 85              	2.1000      	0.123333    	1               	; 
 86              	1.5000      	2.153333    	1               	; 
 87              	19.2000     	8.333333    	1               	; 
 88              	2.1000      	0.716667    	1               	; 
 89              	1.5000      	0.583333    	1               	; 
 PRV2_in         	3.2000      	0.000000    	1               	;
 PRV1_in         	18.7000     	0.000000    	1               	;

[RESERVOIRS]
;ID              	Head        	Pattern         
 15              	57.0000     	                	; 
 43              	53.0800     	                	; 
 65              	55.0000     	                	; 

[TANKS]
;ID              	Elevation   	InitLevel   	MinLevel    	MaxLevel    	Diameter    	MinVol      	VolCurve        	Overflow

[PIPES]
;ID              	Node1           	Node2           	Length      	Diameter    	Roughness   	MinorLoss   	Status
 1               	1               	2               	977.3600    	100.0000    	98.0000     	0.0000      	Open  	; 
 2               	3               	4               	443.1700    	150.0000    	115.0000    	0.0000      	Open  	; 
 3               	3               	5               	1410.7700   	100.0000    	62.0000     	0.0000      	Open  	; 
 4               	3               	1               	269.6100    	125.0000    	102.0000    	0.0000      	Open  	; 
 6               	6               	8               	203.0600    	100.0000    	95.0000     	0.0000      	Open  	; 
 7               	9               	6               	2309.1400   	100.0000    	74.0000     	0.0000      	Open  	; 
 8               	10              	11              	1479.9800   	150.0000    	85.0000     	0.0000      	Open  	; 
 11              	15              	14              	43.9700     	350.0000    	95.0000     	0.0000      	Open  	; 
 12              	13              	17              	589.1600    	200.0000    	138.0000    	0.0000      	Open  	; 
 13              	18              	13              	618.5300    	200.0000    	127.0000    	0.0000      	Open  	; 
 14              	18              	19              	341.1000    	200.0000    	73.0000     	0.0000      	Open  	; 
 15              	20              	18              	341.9200    	100.0000    	130.0000    	0.0000      	Open  	; 
 16              	21              	20              	434.2400    	100.0000    	100.0000    	0.0000      	Open  	; 
 17              	22              	23              	240.5900    	100.0000    	90.0000     	0.0000      	Open  	; 
 18              	24              	25              	957.4400    	200.0000    	100.0000    	0.0000      	Open  	; 
 19              	14              	PRV1_in         	171.0400    	350.0000    	88.0000     	0.0000      	Open  	; 
 20              	24              	17              	235.5700    	300.0000    	89.0000     	0.0000      	Open  	; 
 21              	26              	17              	3.5900      	200.0000    	110.0000    	0.0000      	Open  	; 
 22              	26              	27              	324.3600    	200.0000    	109.0000    	0.0000      	Open  	; 
 24              	21              	22              	749.7400    	100.0000    	109.0000    	0.0000      	Open  	; 
 25              	23              	21              	639.7000    	100.0000    	100.0000    	0.0000      	Open  	; 
 26              	27              	23              	422.9500    	100.0000    	75.0000     	0.0000      	Open  	; 
 27              	20              	27              	843.5200    	125.0000    	100.0000    	0.0000      	Open  	; 
 28              	19              	20              	609.2300    	100.0000    	112.0000    	0.0000      	Open  	; 
 29              	28              	29              	179.0400    	150.0000    	97.0000     	0.0000      	Open  	; 
 30              	28              	30              	570.9000    	100.0000    	104.0000    	0.0000      	Open  	; 
 31              	30              	28              	575.7300    	100.0000    	100.0000    	0.0000      	Open  	; 
 32              	31              	32              	250.2800    	100.0000    	87.0000     	0.0000      	Open  	; 
 33              	30              	33              	442.1100    	100.0000    	95.0000     	0.0000      	Open  	; 
 34              	34              	30              	762.3500    	100.0000    	81.0000     	0.0000      	Open  	; 
 35              	35              	36              	1124.9000   	100.0000    	103.0000    	0.0000      	Open  	; 
 36              	31              	11              	1903.7500   	100.0000    	76.0000     	0.0000      	Open  	; 
 37              	37              	31              	125.5100    	125.0000    	77.0000     	0.0000      	Open  	; 
 38              	37              	38              	121.2700    	200.0000    	80.0000     	0.0000      	Open  	; 
 39              	19              	38              	55.3200     	200.0000    	53.0000     	0.0000      	Open  	; 
 41              	40              	39              	424.8600    	100.0000    	110.0000    	0.0000      	Open  	; 
 42              	40              	41              	72.8000     	100.0000    	95.0000     	0.0000      	Open  	; 
 43              	9               	40              	554.0800    	100.0000    	81.0000     	0.0000      	Open  	; 
 44              	33              	9               	305.5300    	100.0000    	109.0000    	0.0000      	Open  	; 
 45              	41              	33              	568.3500    	100.0000    	69.0000     	0.0000      	Open  	; 
 46              	34              	41              	63.8100     	100.0000    	90.0000     	0.0000      	Open  	; 
 47              	39              	34              	310.7600    	100.0000    	88.0000     	0.0000      	Open  	; 
 48              	12              	39              	1217.1700   	200.0000    	95.0000     	0.0000      	Open  	; 
 49              	25              	12              	365.8200    	150.0000    	95.0000     	0.0000      	Open  	; 
 50              	35              	25              	1408.3300   	100.0000    	80.0000     	0.0000      	Open  	; 
 51              	29              	35              	33.2500     	100.0000    	91.0000     	0.0000      	Open  	; 
 52              	8               	29              	720.9000    	200.0000    	89.0000     	0.0000      	Open  	; 
 53              	42              	11              	441.6900    	250.0000    	99.0000     	0.0000      	Open  	; 
 54              	43              	42              	332.9900    	400.0000    	105.0000    	0.0000      	Open  	; 
 55              	44              	42              	229.8500    	350.0000    	105.0000    	0.0000      	Open  	; 
 56              	45              	46              	500.9200    	100.0000    	80.0000     	0.0000      	Open  	; 
 57              	47              	48              	232.0700    	250.0000    	92.0000     	0.0000      	Open  	; 
 58              	32              	49              	5.4300      	100.0000    	75.0000     	0.0000      	Open  	; 
 59              	46              	32              	66.2400     	100.0000    	77.0000     	0.0000      	Open  	; 
 60              	50              	46              	232.1300    	100.0000    	91.0000     	0.0000      	Open  	; 
 61              	49              	50              	154.7800    	100.0000    	111.0000    	0.0000      	Open  	; 
 62              	48              	49              	645.1000    	100.0000    	81.0000     	0.0000      	Open  	; 
 63              	51              	48              	157.8700    	200.0000    	96.0000     	0.0000      	Open  	; 
 64              	50              	51              	645.7900    	100.0000    	88.0000     	0.0000      	Open  	; 
 65              	52              	50              	206.6900    	100.0000    	106.0000    	0.0000      	Open  	; 
 66              	51              	53              	156.7500    	150.0000    	77.0000     	0.0000      	Open  	; 
 68              	54              	55              	152.8100    	100.0000    	91.0000     	0.0000      	Open  	; 
 70              	56              	47              	52.3700     	250.0000    	98.0000     	0.0000      	Open  	; 
 71              	44              	PRV2_in         	394.6700    	300.0000    	105.0000    	0.0000      	Open  	; 
 72              	56              	44              	774.6900    	100.0000    	111.0000    	0.0000      	Open  	; 
 73              	57              	56              	435.5800    	200.0000    	92.0000     	0.0000      	Open  	; 
 74              	58              	57              	899.6700    	250.0000    	72.0000     	0.0000      	Open  	; 
 75              	59              	60              	198.5000    	125.0000    	81.0000     	0.0000      	Open  	; 
 76              	55              	61              	1116.1500   	100.0000    	77.0000     	0.0000      	Open  	; 
 78              	52              	53              	631.8000    	100.0000    	122.0000    	0.0000      	Open  	; 
 79              	45              	52              	350.9700    	100.0000    	83.0000     	0.0000      	Open  	; 
 81              	61              	5               	226.0300    	125.0000    	101.0000    	0.0000      	Open  	; 
 82              	60              	61              	186.7700    	100.0000    	88.0000     	0.0000      	Open  	; 
 83              	58              	60              	337.2400    	100.0000    	103.0000    	0.0000      	Open  	; 
 84              	62              	58              	173.0900    	250.0000    	81.0000     	0.0000      	Open  	; 
 85              	62              	2               	784.4500    	100.0000    	73.0000     	0.0000      	Open  	; 
 86              	59              	62              	86.3900     	200.0000    	73.0000     	0.0000      	Open  	; 
 87              	4               	59              	732.9300    	200.0000    	97.0000     	0.0000      	Open  	; 
 88              	2               	4               	193.7800    	100.0000    	89.0000     	0.0000      	Open  	; 
 89              	65              	6               	1744.2700   	100.0000    	88.0000     	0.0000      	Open  	; 
 90              	65              	76              	154.1800    	250.0000    	109.0000    	0.0000      	Open  	; 
 92              	86              	45              	1635.6900   	100.0000    	95.0000     	0.0000      	Open  	; 
 93              	76              	8               	1072.6900   	250.0000    	94.0000     	0.0000      	Open  	; 
 94              	82              	83              	5.0000      	100.0000    	112.0000    	0.0000      	Open  	; 
 95              	82              	85              	240.0500    	100.0000    	81.0000     	0.0000      	Open  	; 
 96              	22              	85              	841.6300    	100.0000    	100.0000    	0.0000      	Open  	; 
 97              	26              	83              	601.5800    	100.0000    	102.0000    	0.0000      	Open  	; 
 98              	5               	86              	1600.0000   	100.0000    	88.0000     	0.0000      	Open  	; 
 100             	54              	84              	180.0000    	100.0000    	94.0000     	0.0000      	Open  	; 
 102             	83              	85              	240.0000    	100.0000    	76.0000     	0.0000      	Open  	; 
 103             	43              	87              	10.0000     	150.0000    	76.0000     	0.0000      	Open  	; 
 104             	55              	89              	179.5400    	100.0000    	92.0000     	0.0000      	Open  	; 
 105             	89              	53              	331.4000    	100.0000    	100.0000    	0.0000      	Open  	; 
 106             	55              	88              	332.3500    	100.0000    	125.0000    	0.0000      	Open  	; 
 107             	88              	51              	325.0300    	100.0000    	82.0000     	0.0000      	Open  	; 
 108             	84              	88              	113.3500    	100.0000    	93.0000     	0.0000      	Open  	; 
 109             	88              	89              	150.8200    	100.0000    	90.0000     	0.0000      	Open  	; 
 110             	55              	86              	165.4300    	100.0000    	66.0000     	0.0000      	Open  	; 

[PUMPS]
;ID              	Node1           	Node2           	Parameters

[VALVES]
;ID              	Node1           	Node2           	Diameter    	Type	Setting     	MinorLoss   
 PRV2            	PRV2_in         	57              	300.0000    	PRV 	0.0000      	0.0000      	;
 PRV1            	PRV1_in         	24              	300.0000    	PRV 	0.0000      	0.0000      	;

[TAGS]

[DEMANDS]
;Junction        	Demand      	Pattern         	Category

[STATUS]
;ID              	Status/Setting

[PATTERNS]
;ID              	Multipliers
;
 1               	0.4100      	0.4100      	0.2100      	0.2100      	0.2100      	0.2100      
 1               	0.6100      	0.6100      	1.0300      	1.0300      	0.9300      	0.9300      
 1               	0.7200      	0.7200      	0.7200      	0.7200      	0.8300      	0.8300      
 1               	0.7200      	0.7200      	0.6200      	0.4100      	0.4100      	0.4100      
;
 Res_C_1         	0.2859      	0.2746      	0.3314      	0.3761      	0.2040      	0.3032      
 Res_C_1         	0.2002      	0.3293      	0.2128      	0.2126      	0.2862      	0.3286      
 Res_C_1         	0.2474      	0.1925      	0.1790      	0.3303      	0.2220      	0.2283      
 Res_C_1         	0.2945      	0.3275      	0.2274      	0.2272      	0.2254      	0.3469      
 Res_C_1         	0.2303      	0.2537      	0.3828      	0.4716      	0.1943      	0.2735      
 Res_C_1         	0.2946      	0.3287      	0.2562      	0.1981      	0.1676      	0.3284      
 Res_C_1         	0.2232      	0.2197      	0.2928      	0.3273      	0.2525      	0.2056      
 Res_C_1         	0.1903      	0.3304      	0.2243      	0.2098      	0.3086      	0.3364      
 Res_C_1         	0.2386      	0.2710      	0.3818      	0.4642      	0.1854      	0.2719      
 Res_C_1         	0.2932      	0.3325      	0.2543      	0.1822      	0.1704      	0.3291      
 Res_C_1         	0.2216      	0.2048      	0.2914      	0.3304      	0.2307      	0.2501      
 Res_C_1         	0.1898      	0.3363      	0.2193      	0.2247      	0.3110      	0.3448      
 Res_C_1         	0.2580      	0.2437      	0.3827      	0.4756      	0.1947      	0.2663      
 Res_C_1         	0.2953      	0.3282      	0.2573      	0.2225      	0.1726      	0.3279      
 Res_C_1         	0.2215      	0.2235      	0.2939      	0.3271      	0.2510      	0.1982      
 Res_C_1         	0.1797      	0.3317      	0.2250      	0.2266      	0.3162      	0.3388      
 Res_C_1         	0.2558      	0.2462      	0.3829      	0.4729      	0.1930      	0.2708      
 Res_C_1         	0.2944      	0.3312      	0.2563      	0.2060      	0.1658      	0.3256      
 Res_C_1         	0.2196      	0.1874      	0.2962      	0.3353      	0.2262      	0.2130      
 Res_C_1         	0.2214      	0.3286      	0.2297      	0.2171      	0.3124      	0.3439      
 Res_C_1         	0.2570      	0.2528      	0.3816      	0.4732      	0.1977      	0.2737      
 Res_C_1         	0.2952      	0.3315      	0.2551      	0.1870      	0.1689      	0.3221      
 Res_C_1         	0.2245      	0.2028      	0.2965      	0.3339      	0.2498      	0.2186      
 Res_C_1         	0.1875      	0.3273      	0.1798      	0.2248      	0.3146      	0.3465      
 Res_C_1         	0.2575      	0.2522      	0.3821      	0.4717      	0.1939      	0.2722      
 Res_C_1         	0.2944      	0.3317      	0.2542      	0.2122      	0.1738      	0.3244      
 Res_C_1         	0.2262      	0.2275      	0.2949      	0.3325      	0.2484      	0.2069      
 Res_C_1         	0.1878      	0.3294      	0.1807      	0.2307      	0.3200      	0.3380      
 Res_C_1         	0.2375      	0.2657      	0.3818      	0.4676      	0.1889      	0.2681      
 Res_C_1         	0.2944      	0.3330      	0.2528      	0.1872      	0.1674      	0.3229      
 Res_C_1         	0.2225      	0.2059      	0.2986      	0.3340      	0.2261      	0.2119      
 Res_C_1         	0.2223      	0.3281      	0.2273      	0.2277      	0.3100      	0.3422      
 Res_C_1         	0.2589      	0.2570      	0.3826      	0.4689      	0.1889      	0.2682      
 Res_C_1         	0.2941      	0.3280      	0.2542      	0.1927      	0.1696      	0.3297      
 Res_C_1         	0.2241      	0.2248      	0.2951      	0.3310      	0.2253      	0.2100      
 Res_C_1         	0.1826      	0.3335      	0.2299      	0.2363      	0.3098      	0.3364      
 Res_C_1         	0.2372      	0.2705      	0.3768      	0.4776      	0.2164      	0.2875      
 Res_C_1         	0.2992      	0.3316      	0.2543      	0.2046      	0.1670      	0.3256      
 Res_C_1         	0.2250      	0.2273      	0.2945      	0.3332      	0.2481      	0.1973      
 Res_C_1         	0.2190      	0.3274      	0.2281      	0.2188      	0.3120      	0.3377      
 Res_C_1         	0.2351      	0.2674      	0.3816      	0.4669      	0.1901      	0.2731      
 Res_C_1         	0.2943      	0.3339      	0.2533      	0.1866      	0.1694      	0.3232      
 Res_C_1         	0.2215      	0.2105      	0.2965      	0.3306      	0.2244      	0.2006      
 Res_C_1         	0.2246      	0.3344      	0.2204      	0.2287      	0.3073      	0.3356      
 Res_C_1         	0.2380      	0.2765      	0.3762      	0.4764      	0.2161      	0.2854      
 Res_C_1         	0.2999      	0.3297      	0.2553      	0.1954      	0.1704      	0.3294      
 Res_C_1         	0.2220      	0.2017      	0.2912      	0.3319      	0.2519      	0.2227      
 Res_C_1         	0.1834      	0.3289      	0.2244      	0.2006      	0.3171      	0.3399      
 Res_C_1         	0.2568      	0.2476      	0.3831      	0.4720      	0.1913      	0.2685      
 Res_C_1         	0.2947      	0.3306      	0.2550      	0.2052      	0.1668      	0.3283      
 Res_C_1         	0.2233      	0.2086      	0.2939      	0.3342      	0.2486      	0.1986      
 Res_C_1         	0.2177      	0.3285      	0.2304      	0.2089      	0.3086      	0.3355      
 Res_C_1         	0.2374      	0.2740      	0.3760      	0.4791      	0.2157      	0.2753      
 Res_C_1         	0.3028      	0.3280      	0.2570      	0.1905      	0.1707      	0.3289      
 Res_C_1         	0.2237      	0.2197      	0.2930      	0.3262      	0.2294      	0.2182      
 Res_C_1         	0.2269      	0.3331      	0.2221      	0.2153      	0.3083      	0.3352      
 Res_C_1         	0.2397      	0.2777      	0.3762      	0.4758      	0.2161      	0.2865      
 Res_C_1         	0.2997      	0.3295      	0.2569      	0.2184      	0.1815      	0.3290      
 Res_C_1         	0.2181      	0.2037      	0.2922      	0.3266      	0.2292      	0.2230      
 Res_C_1         	0.1975      	0.3351      	0.1809      	0.2398      	0.3118      	0.3430      
 Res_C_1         	0.2603      	0.2508      	0.3829      	0.4714      	0.1905      	0.2662      
 Res_C_1         	0.2946      	0.3283      	0.2554      	0.2048      	0.1648      	0.3256      
 Res_C_1         	0.2248      	0.2195      	0.2936      	0.3269      	0.2280      	0.2143      
 Res_C_1         	0.2193      	0.3259      	0.2343      	0.2306      	0.3111      	0.3362      
 Res_C_1         	0.2362      	0.2656      	0.3766      	0.4805      	0.2183      	0.2863      
 Res_C_1         	0.2999      	0.3305      	0.2537      	0.1957      	0.1656      	0.3224      
 Res_C_1         	0.2182      	0.2021      	0.2970      	0.3336      	0.2262      	0.1987      
 Res_C_1         	0.1916      	0.3383      	0.2194      	0.2301      	0.3075      	0.3353      
 Res_C_1         	0.2423      	0.2728      	0.3807      	0.4687      	0.1930      	0.2655      
 Res_C_1         	0.2955      	0.3290      	0.2569      	0.1853      	0.1738      	0.3302      
 Res_C_1         	0.2220      	0.2187      	0.2921      	0.3252      	0.2506      	0.1993      
 Res_C_1         	0.1868      	0.3341      	0.1853      	0.2497      	0.3134      	0.3438      
 Res_C_1         	0.2558      	0.2396      	0.3824      	0.4782      	0.1973      	0.2674      
 Res_C_1         	0.2960      	0.3351      	0.2557      	0.2228      	0.1735      	0.3260      
 Res_C_1         	0.1803      	0.2254      	0.2942      	0.3352      	0.2474      	0.1958      
 Res_C_1         	0.1790      	0.3309      	0.2254      	0.2189      	0.3188      	0.3401      
 Res_C_1         	0.2525      	0.2432      	0.3822      	0.4761      	0.1974      	0.2718      
 Res_C_1         	0.2956      	0.3319      	0.2549      	0.2059      	0.1696      	0.3266      
 Res_C_1         	0.2200      	0.2071      	0.2983      	0.3337      	0.2256      	0.2115      
 Res_C_1         	0.2949      	0.3854      	0.2491      	0.2273      	0.2369      	0.0001      
;
 Res_C_2         	0.5000      	0.5000      	0.5000      	0.5000      	0.5000      	0.5000      
 Res_C_2         	0.5000      	0.5000      	0.5000      	0.5000      	0.5000      	0.5000      
 Res_C_2         	0.5000      	0.5000      	0.5000      	0.5000      	0.5000      	0.5000      
 Res_C_2         	0.5000      	0.5000      	0.5000      	0.5000      	0.5000      	0.5000      
 Res_C_2         	0.5000      	0.5000      	0.5000      	0.5000      	0.5000      	0.5000      
 Res_C_2         	0.5000      	0.5000      	0.5000      	0.5000      	0.5000      	0.5000      
 Res_C_2         	0.5000      	0.5000      	0.5000      	0.5000      	0.5000      	0.5000      
 Res_C_2         	0.5000      	0.5000      	0.5000      	0.5000      	0.5000      	0.5000      
 Res_C_2         	0.5000      	0.5000      	0.5000      	0.5000      	0.5000      	0.5000      
 Res_C_2         	0.5000      	0.5000      	0.5000      	0.5000      	0.5000      	0.5000      
 Res_C_2         	0.5000      	0.5000      	0.5000      	0.5000      	0.5000      	0.5000      
 Res_C_2         	0.5000      	0.5000      	0.5000      	0.5000      	0.5000      	0.5000      
 Res_C_2         	0.5000      	0.5000      	0.5000      	0.5000      	0.5000      	0.5000      
 Res_C_2         	0.5000      	0.5000      	0.5000      	0.5000      	0.5000      	0.5000      
 Res_C_2         	0.5000      	0.5000      	0.5000      	0.5000      	0.5000      	0.5000      
 Res_C_2         	0.5000      	0.5000      	0.5000      	0.5000      	0.5000      	0.5000      
 Res_C_2         	0.5000      	0.5000      	0.5000      	0.5000      	0.5000      	0.5000      
 Res_C_2         	0.5000      	0.5000      	0.5000      	0.5000      	0.5000      	0.5000      
 Res_C_2         	0.5000      	0.5000      	0.5000      	0.5000      	0.5000      	0.5000      
 Res_C_2         	0.5000      	0.5000      	0.5000      	0.5000      	0.5000      	0.5000      
 Res_C_2         	0.5000      	0.5000      	0.5000      	0.5000      	0.5000      	0.5000      
 Res_C_2         	0.5000      	0.5000      	0.5000      	0.5000      	0.5000      	0.5000      
 Res_C_2         	0.5000      	0.5000      	0.5000      	0.5000      	0.5000      	0.5000      
 Res_C_2         	0.5000      	0.5000      	0.5000      	0.5000      	0.5000      	0.5000      
 Res_C_2         	0.5000      	0.5000      	0.5000      	0.5000      	0.5000      	0.5000      
 Res_C_2         	0.5000      	0.5000      	0.5000      	0.5000      	0.5000      	0.5000      
 Res_C_2         	0.5000      	0.5000      	0.5000      	0.5000      	0.5000      	0.5000      
 Res_C_2         	0.5000      	0.5000      	0.5000      	0.5000      	0.5000      	0.5000      
 Res_C_2         	0.5000      	0.5000      	0.5000      	0.5000      	0.5000      	0.5000      
 Res_C_2         	0.5000      	0.5000      	0.5000      	0.5000      	0.5000      	0.5000      
 Res_C_2         	0.5000      	0.5000      	0.5000      	0.5000      	0.5000      	0.5000      
 Res_C_2         	0.5000      	0.5000      	0.5000      	0.5000      	0.5000      	0.5000      
 Res_C_2         	0.5000      	0.5000      	0.5000      	0.5000      	0.5000      	0.5000      
 Res_C_2         	0.5000      	0.5000      	0.5000      	0.5000      	0.5000      	0.5000      
 Res_C_2         	0.5000      	0.5000      	0.5000      	0.5000      	0.5000      	0.5000      
 Res_C_2         	0.5000      	0.5000      	0.5000      	0.5000      	0.5000      	0.5000      
 Res_C_2         	0.5000      	0.5000      	0.5000      	0.5000      	0.5000      	0.5000      
 Res_C_2         	0.5000      	0.5000      	0.5000      	0.5000      	0.5000      	0.5000      
 Res_C_2         	0.5000      	0.5000      	0.5000      	0.5000      	0.5000      	0.5000      
 Res_C_2         	0.5000      	0.5000      	0.5000      	0.5000      	0.5000      	0.5000      
 Res_C_2         	0.5000      	0.5000      	0.5000      	0.5000      	0.5000      	0.5000      
 Res_C_2         	0.5000      	0.5000      	0.5000      	0.5000      	0.5000      	0.5000      
 Res_C_2         	0.5000      	0.5000      	0.5000      	0.5000      	0.5000      	0.5000      
 Res_C_2         	0.5000      	0.5000      	0.5000      	0.5000      	0.5000      	0.5000      
 Res_C_2         	0.5000      	0.5000      	0.5000      	0.5000      	0.5000      	0.5000      
 Res_C_2         	0.5000      	0.5000      	0.5000      	0.5000      	0.5000      	0.5000      
 Res_C_2         	0.5000      	0.5000      	0.5000      	0.5000      	0.5000      	0.5000      
 Res_C_2         	0.5000      	0.5000      	0.5000      	0.5000      	0.5000      	0.5000      
 Res_C_2         	0.5000      	0.5000      	0.5000      	0.5000      	0.5000      	0.5000      
 Res_C_2         	0.5000      	0.5000      	0.5000      	0.5000      	0.5000      	0.5000      
 Res_C_2         	0.5000      	0.5000      	0.5000      	0.5000      	0.5000      	0.5000      
 Res_C_2         	0.5000      	0.5000      	0.5000      	0.5000      	0.5000      	0.5000      
 Res_C_2         	0.5000      	0.5000      	0.5000      	0.5000      	0.5000      	0.5000      
 Res_C_2         	0.5000      	0.5000      	0.5000      	0.5000      	0.5000      	0.5000      