[TITLE]
modena -- Bragalli, D'Ambrosio, Lee, Lodi, Toth (2008)

[JUNCTIONS]
 1                                    39.4900  ; 
 2                                    39.6200  ; 
 3                                    38.7000  ; 
 4                                    37.2500  ; 
 5                                    36.2700  ; 
 6                                    35.9500  ; 
 7                                    35.9500  ; 
 8                                    36.0900  ; 
 9                                    36.1800  ; 
 10                                   37.0000  ; 
 11                                   36.5000  ; 
 12                                   37.3900  ; 
 13                                   38.0700  ; 
 14                                   37.0200  ; 
 15                                   41.2600  ; 
 16                                   39.3500  ; 
 17                                   39.5300  ; 
 18                                   36.5900  ; 
 19                                   36.7600  ; 
 20                                   37.7200  ; 
 21                                   37.3100  ; 
 22                                   37.6200  ; 
 23                                   36.9900  ; 
 24                                   35.2000  ; 
 25                                   35.1100  ; 
 26                                   34.6500  ; 
 27                                   34.3300  ; 
 28                                   36.1500  ; 
 29                                   36.3000  ; 
 30                                   36.1000  ; 
 31                                   36.1400  ; 
 32                                   35.8000  ; 
 33                                   33.2600  ; 
 34                                   33.3400  ; 
 35                                   33.5100  ; 
 36                                   32.7000  ; 
 37                                   32.6500  ; 
 38                                   32.5600  ; 
 39                                   33.5600  ; 
 40                                   31.5900  ; 
 41                                   31.3800  ; 
 42                                   32.6700  ; 
 43                                   33.5000  ; 
 44                                   33.5700  ; 
 45                                   33.7700  ; 
 46                                   34.1400  ; 
 47                                   33.6800  ; 
 48                                   33.7100  ; 
 49                                   31.6800  ; 
 50                                   33.3400  ; 
 51                                   32.8300  ; 
 52                                   32.7800  ; 
 53                                   39.2800  ; 
 54                                   37.1200  ; 
 55                                   36.4800  ; 
 56                                   36.4200  ; 
 57                                   36.1300  ; 
 58                                   36.0500  ; 
 59                                   36.7700  ; 
 60                                   35.4800  ; 
 61                                   35.0500  ; 
 62                                   35.1000  ; 
 63                                   37.9500  ; 
 64                                   38.4400  ; 
 65                                   37.8100  ; 
 66                                   38.2200  ; 
 67                                   38.7300  ; 
 68                                   38.9500  ; 
 69                                   39.7000  ; 
 70                                   40.5900  ; 
 71                                   40.8100  ; 
 72                                   41.0600  ; 
 73                                   41.4500  ; 
 74                                   41.8300  ; 
 75                                   41.4400  ; 
 76                                   41.0900  ; 
 77                                   40.7400  ; 
 78                                   38.6000  ; 
 79                                   36.9100  ; 
 80                                   36.7500  ; 
 81                                   36.8100  ; 
 82                                   37.0500  ; 
 83                                   35.8800  ; 
 84                                   36.4500  ; 
 85                                   36.1600  ; 
 86                                   34.9900  ; 
 87                                   35.6100  ; 
 88                                   34.8900  ; 
 89                                   35.5900  ; 
 90                                   35.7000  ; 
 91                                   35.2000  ; 
 92                                   35.6400  ; 
 93                                   35.9300  ; 
 94                                   37.6400  ; 
 95                                   37.1700  ; 
 96                                   37.1000  ; 
 97                                   36.9700  ; 
 98                                   37.0000  ; 
 99                                   36.7400  ; 
 100                                  34.7800  ; 
 101                                  34.2600  ; 
 102                                  33.6600  ; 
 103                                  33.7800  ; 
 104                                  33.7500  ; 
 105                                  33.3800  ; 
 106                                  34.8500  ; 
 107                                  34.2700  ; 
 108                                  34.3000  ; 
 109                                  33.9500  ; 
 110                                  33.9200  ; 
 111                                  32.3200  ; 
 112                                  34.7600  ; 
 113                                  34.2100  ; 
 114                                  34.9200  ; 
 115                                  32.9600  ; 
 116                                  30.6900  ; 
 117                                  30.5900  ; 
 118                                  30.7300  ; 
 119                                  30.7000  ; 
 120                                  31.0200  ; 
 121                                  31.0300  ; 
 122                                  31.7500  ; 
 123                                  32.0000  ; 
 124                                  32.0500  ; 
 125                                  32.1000  ; 
 126                                  33.7600  ; 
 127                                  32.2700  ; 
 128                                  31.8600  ; 
 129                                  32.4200  ; 
 130                                  33.0000  ; 
 131                                  33.6300  ; 
 132                                  36.3700  ; 
 133                                  35.6900  ; 
 134                                  35.5200  ; 
 135                                  35.5600  ; 
 136                                  35.9200
 137                                  35.3700  ; 
 138                                  35.0600  ; 
 139                                  34.1200  ; 
 140                                  39.3500  ; 
 141                                  39.1000  ; 
 142                                  39.8400  ; 
 143                                  39.8400  ; 
 144                                  39.4500  ; 
 145                                  39.7000  ; 
 146                                  37.9500  ; 
 147                                  37.6100  ; 
 148                                  37.9500  ; 
 149                                  35.6900  ; 
 150                                  35.3200  ; 
 151                                  35.8100  ; 
 152                                  35.8100  ; 
 153                                  36.0200  ; 
 154                                  38.2500  ; 
 155                                  37.5000  ; 
 156                                  37.5400  ; 
 157                                  37.0800  ; 
 158                                  36.7600  ; 
 159                                  35.8800  ; 
 160                                  35.7700  ; 
 161                                  34.7000  ; 
 162                                  35.3700  ; 
 163                                  34.9900  ; 
 164                                  35.9300  ; 
 165                                  36.2700  ; 
 166                                  32.6700  ; 
 167                                  32.7500  ; 
 168                                  32.8800  ; 
 169                                  34.0900  ; 
 170                                  36.0900  ; 
 171                                  36.0500  ; 
 172                                  36.0400  ; 
 173                                  36.0200  ; 
 174                                  31.7600  ; 
 175                                  31.9100  ; 
 176                                  31.8000  ; 
 177                                  31.4800  ; 
 178                                  31.1200  ; 
 179                                  31.1000  ; 
 180                                  31.1900  ; 
 181                                  30.3900  ; 
 182                                  30.5500  ; 
 183                                  31.1300  ; 
 184                                  31.8100  ; 
 185                                  32.3400  ; 
 186                                  32.8300  ; 
 187                                  33.6900  ; 
 188                                  33.1700  ; 
 189                                  33.2300  ; 
 190                                  33.3400  ; 
 191                                  33.7700  ; 
 192                                  33.7700  ; 
 193                                  32.2000  ; 
 194                                  34.4100  ; 
 195                                  33.3900  ; 
 196                                  34.3400  ; 
 197                                  35.0300  ; 
 198                                  34.4400  ; 
 199                                  34.5300  ; 
 200                                  34.9400  ; 
 201                                  34.7000  ; 
 202                                  36.7000  ; 
 203                                  36.2000  ; 
 204                                  35.0300  ; 
 205                                  36.7700  ; 
 206                                  36.2000  ; 
 207                                  37.8800  ; 
 208                                  38.0300  ; 
 209                                  36.8600  ; 
 210                                  37.2400  ; 
 211                                  36.6600  ; 
 212                                  36.4900  ; 
 213                                  37.3000  ; 
 214                                  40.3000  ; 
 215                                  39.8500  ; 
 216                                  41.0000  ; 
 217                                  41.1600  ; 
 218                                  35.0500  ; 
 219                                  33.9200  ; 
 220                                  32.1400  ; 
 221                                  34.1700  ; 
 222                                  35.1000  ; 
 223                                  31.5500  ; 
 224                                  31.7500  ; 
 225                                  32.0700  ; 
 226                                  31.9400  ; 
 227                                  31.6600  ; 
 228                                  31.0400  ; 
 229                                  31.0500  ; 
 230                                  38.4900  ; 
 231                                  35.6800  ; 
 232                                  35.3900  ; 
 233                                  34.8900  ; 
 234                                  34.8600  ; 
 235                                  34.9900  ; 
 236                                  32.5400  ; 
 237                                  34.4100  ; 
 238                                  36.1600  ; 
 239                                  35.3000  ; 
 240                                  35.1700  ; 
 241                                  32.9200  ; 
 242                                  33.0700  ; 
 243                                  31.9100  ; 
 244                                  32.0000  ; 
 245                                  32.0500  ; 
 246                                  32.0500  ; 
 247                                  30.7000  ; 
 248                                  31.3300  ; 
 249                                  36.3000  ; 
 250                                  35.8300  ; 
 251                                  36.9500  ; 
 252                                  38.0100  ; 
 253                                  36.6500  ; 
 254                                  36.9100  ; 
 255                                  36.7700  ; 
 256                                  31.5000  ; 
 257                                  38.6500  ; 
 258                                  39.5400  ; 
 259                                  39.5800  ; 
 260                                  39.5800  ; 
 261                                  40.5500  ; 
 262                                  40.7900  ; 
 263                                  40.9500  ; 
 264                                  37.7600  ; 
 265                                  35.9600  ; 
 266                                  36.8100  ; 
 267                                  36.2100  ; 
 268                                  35.6100  ; 
 PRV1_in                              35.9200
 PRV2_in                              32.7800

[RESERVOIRS]
 269                                  78.5000  Res_Pat                        ; 
 270                                  78.8000  Res_Pat                        ; 
 271                                  78.5000  Res_Pat                        ; 
 272                                  79.5000  Res_Pat                        ; 

[TANKS]

[PIPES]
 1                               1                               16                                   46.8400     125.0000      98.0000       0.0000        ; 
 2                               16                              2                                   267.6800     100.0000     115.0000       0.0000        ; 
 3                               2                               3                                   541.0700     100.0000      62.0000       0.0000        ; 
 4                               3                               4                                   542.2900     100.0000     102.0000       0.0000        ; 
 5                               4                               5                                   404.7200     100.0000      95.0000       0.0000        ; 
 6                               5                               206                                 151.6700     100.0000      74.0000       0.0000        ; 
 7                               206                             6                                   341.5700     100.0000      85.0000       0.0000        ; 
 8                               1                               140                                  39.9100     100.0000      95.0000       0.0000        ; 
 9                               140                             143                                 269.7300     100.0000     138.0000       0.0000        ; 
 10                              143                             145                                  45.9200     100.0000     127.0000       0.0000        ; 
 11                              145                             146                                 890.0900     100.0000      73.0000       0.0000        ; 
 12                              146                             148                                  33.7900     100.0000     130.0000       0.0000        ; 
 13                              148                             63                                    6.0300     100.0000     100.0000       0.0000        ; 
 14                              63                              149                                 367.9200     125.0000      90.0000       0.0000        ; 
 15                              149                             150                                  97.6600     125.0000     100.0000       0.0000        ; 
 16                              150                             60                                  322.1900     100.0000      88.0000       0.0000        ; 
 17                              60                              61                                  359.4800     100.0000      89.0000       0.0000        ; 
 18                              61                              218                                 199.5900     100.0000     110.0000       0.0000        ; 
 19                              1                               141                                  57.0600     200.0000     109.0000       0.0000        ; 
 20                              141                             142                                 223.4100     200.0000     109.0000       0.0000        ; 
 21                              142                             144                                  47.0300     200.0000     100.0000       0.0000        ; 
 22                              144                             257                                 782.6700     200.0000      75.0000       0.0000        ; 
 23                              257                             53                                  231.8700     125.0000     100.0000       0.0000        ; 
 24                              53                              251                                 279.8400     100.0000     112.0000       0.0000        ; 
 25                              251                             57                                  145.7000     100.0000      97.0000       0.0000        ; 
 26                              57                              58                                   81.1000     100.0000     104.0000       0.0000        ; 
 27                              58                              59                                  550.1700     100.0000     100.0000       0.0000        ; 
 28                              53                              230                                 155.6300     100.0000      87.0000       0.0000        ; 
 29                              230                             252                                 357.8100     100.0000      95.0000       0.0000        ; 
 30                              252                             3                                   267.3200     100.0000      81.0000       0.0000        ; 
 31                              3                               13                                  612.5000     100.0000     103.0000       0.0000        ; 
 32                              13                              12                                  160.5000     100.0000      76.0000       0.0000        ; 
 33                              12                              11                                  531.7100     100.0000      77.0000       0.0000        ; 
 34                              1                               258                                  41.9100     200.0000      80.0000       0.0000        ; 
 35                              258                             259                                  95.2200     200.0000      53.0000       0.0000        ; 
 36                              259                             260                                  25.1300     200.0000     110.0000       0.0000        ; 
 37                              260                             215                                 158.1200     200.0000      95.0000       0.0000        ; 
 38                              215                             261                                  95.4000     200.0000      81.0000       0.0000        ; 
 39                              261                             77                                   52.9200     200.0000     109.0000       0.0000        ; 
 40                              77                              262                                  44.9200     200.0000      69.0000       0.0000        ; 
 41                              262                             216                                 127.0500     200.0000      90.0000       0.0000        ; 
 42                              216                             263                                  56.6800     200.0000      88.0000       0.0000        ; 
 43                              263                             76                                  181.2900     200.0000      95.0000       0.0000        ; 
 44                              76                              217                                 220.9000     200.0000      95.0000       0.0000        ; 
 45                              217                             75                                   67.6500     200.0000      80.0000       0.0000        ; 
 46                              75                              74                                   36.0600     200.0000      91.0000       0.0000        ; 
 47                              74                              73                                  242.2900     150.0000      89.0000       0.0000        ; 
 48                              73                              72                                   70.4500     150.0000      99.0000       0.0000        ; 
 49                              72                              71                                  112.8300     150.0000     105.0000       0.0000        ; 
 50                              71                              70                                  105.7200     150.0000     105.0000       0.0000        ; 
 51                              70                              69                                  199.4200     150.0000      80.0000       0.0000        ; 
 52                              69                              68                                  180.6400     125.0000      92.0000       0.0000        ; 
 53                              68                              78                                  288.7600     125.0000      75.0000       0.0000        ; 
 54                              78                              154                                  69.2600     100.0000      77.0000       0.0000        ; 
 55                              154                             79                                  718.4500     100.0000      91.0000       0.0000        ; 
 56                              79                              155                                 390.7800     100.0000     111.0000       0.0000        ; 
 57                              155                             156                                  24.0000     125.0000      81.0000       0.0000        ; 
 58                              156                             95                                  504.5200     125.0000      96.0000       0.0000        ; 
 59                              95                              96                                   41.7800     150.0000      88.0000       0.0000        ; 
 60                              96                              97                                  367.9300     150.0000     106.0000       0.0000        ; 
 61                              97                              157                                 101.8600     150.0000      77.0000       0.0000        ; 
 62                              157                             98                                  125.3600     150.0000      91.0000       0.0000        ; 
 63                              98                              158                                 699.7600     150.0000      98.0000       0.0000        ; 
 64                              158                             136                                 448.0500     200.0000     105.0000       0.0000        ; 
 65                              136                             159                                 114.2900     200.0000     111.0000       0.0000        ; 
 66                              159                             160                                 197.3000     200.0000      92.0000       0.0000        ; 
 67                              160                             137                                 235.9800     200.0000      72.0000       0.0000        ; 
 68                              137                             135                                 224.8700     200.0000      81.0000       0.0000        ; 
 69                              135                             222                                 176.7300     125.0000      77.0000       0.0000        ; 
 70                              222                             161                                  76.4400     100.0000     122.0000       0.0000        ; 
 71                              161                             131                                 356.9400     100.0000      83.0000       0.0000        ; 
 72                              131                             242                                 443.7900     100.0000     101.0000       0.0000        ; 
 73                              242                             130                                  20.5500     100.0000      88.0000       0.0000        ; 
 74                              130                             241                                 113.3300     100.0000     103.0000       0.0000        ; 
 75                              241                             168                                  25.9600     100.0000      81.0000       0.0000        ; 
 76                              168                             167                                 145.0400     100.0000      73.0000       0.0000        ; 
 77                              167                             166                                  55.2400     100.0000      73.0000       0.0000        ; 
 78                              166                             129                                 208.2200     100.0000      97.0000       0.0000        ; 
 79                              129                             125                                 190.4300     100.0000      89.0000       0.0000        ; 
 80                              125                             246                                  70.9800     100.0000      88.0000       0.0000        ; 
 81                              246                             245                                  52.0400     100.0000     109.0000       0.0000        ; 
 82                              245                             124                                  34.0300     100.0000      95.0000       0.0000        ; 
 83                              124                             225                                  79.4700     100.0000      94.0000       0.0000        ; 
 84                              225                             226                                 277.9900     100.0000     112.0000       0.0000        ; 
 85                              176                             227                                  86.0300     100.0000      81.0000       0.0000        ; 
 86                              227                             177                                 296.2500     100.0000     100.0000       0.0000        ; 
 87                              177                             180                                 111.3000     100.0000     102.0000       0.0000        ; 
 88                              180                             178                                 123.3700     100.0000      88.0000       0.0000        ; 
 89                              178                             179                                 196.2700     100.0000      94.0000       0.0000        ; 
 90                              179                             228                                 198.4600     100.0000      76.0000       0.0000        ; 
 91                              228                             229                                  75.6200     100.0000      76.0000       0.0000        ; 
 92                              229                             121                                 110.1400     100.0000      92.0000       0.0000        ; 
 93                              121                             118                                 423.5700     100.0000     100.0000       0.0000        ; 
 94                              118                             117                                 116.5700     100.0000     125.0000       0.0000        ; 
 95                              117                             181                                 100.6100     100.0000      82.0000       0.0000        ; 
 96                              181                             182                                 164.8400     100.0000      93.0000       0.0000        ; 
 97                              182                             116                                  47.4900     100.0000      90.0000       0.0000        ; 
 98                              116                             247                                  87.5400     100.0000      66.0000       0.0000        ; 
 99                              49                              184                                 189.2700     150.0000      85.0000       0.0000        ; 
 100                             184                             41                                  244.8000     150.0000      68.0000       0.0000        ; 
 101                             41                              248                                 293.4700     150.0000     102.0000       0.0000        ; 